Version 4
SHEET 1 880 680
WIRE -64 128 -144 128
WIRE -64 144 -64 128
WIRE 0 144 -64 144
WIRE 112 144 112 32
WIRE 112 144 80 144
WIRE 128 144 112 144
WIRE 192 160 192 32
WIRE 320 160 192 160
WIRE 0 176 -64 176
WIRE 112 176 80 176
WIRE 128 176 112 176
WIRE -64 208 -64 176
WIRE -64 208 -144 208
WIRE 112 208 112 176
FLAG 112 288 0
FLAG 320 240 0
SYMBOL voltage -144 112 R0
WINDOW 0 -38 10 Left 2
WINDOW 3 -102 114 Left 2
WINDOW 123 24 44 Left 2
WINDOW 39 0 0 Left 0
SYMATTR InstName V2
SYMATTR Value SINE(0 .1 10000)
SYMBOL res 96 128 R90
WINDOW 0 -2 83 VBottom 2
WINDOW 3 -29 39 VTop 2
SYMATTR InstName R1
SYMATTR Value 10k
SYMBOL res 96 160 R90
WINDOW 0 59 87 VBottom 2
WINDOW 3 31 43 VTop 2
SYMATTR InstName R2
SYMATTR Value 10k
SYMBOL res 208 16 R90
WINDOW 0 0 56 VBottom 2
WINDOW 3 32 56 VTop 2
SYMATTR InstName R3
SYMATTR Value 50k
SYMBOL res 96 192 R0
SYMATTR InstName R4
SYMATTR Value 50k
SYMBOL res 304 144 R0
SYMATTR InstName RL
SYMATTR Value 1m
SYMBOL OpAmps\\opamp 160 96 R0
SYMATTR InstName U1
TEXT -178 312 Left 2 !.tran 0 1m 0 1u
TEXT -176 352 Left 2 !.lib opamp.sub
