Version 4
SHEET 1 1208 680
WIRE 32 -240 -128 -240
WIRE 240 -240 32 -240
WIRE 512 -240 240 -240
WIRE 512 -144 512 -160
WIRE 240 -112 240 -160
WIRE 32 -64 32 -160
WIRE 176 -64 32 -64
WIRE 32 48 32 -64
WIRE -128 96 -128 -160
WIRE -32 96 -128 96
WIRE 240 112 240 -16
WIRE 608 112 576 112
WIRE 720 112 688 112
WIRE 240 176 240 112
WIRE 400 176 240 176
WIRE 576 176 576 112
WIRE 576 176 480 176
WIRE 624 176 576 176
WIRE 720 192 720 112
WIRE 720 192 688 192
WIRE 800 192 720 192
WIRE 624 208 608 208
WIRE -128 224 -128 96
WIRE -96 224 -128 224
WIRE 240 224 240 176
WIRE 240 224 -16 224
WIRE 32 288 32 144
WIRE 240 288 240 224
WIRE 240 288 128 288
WIRE 128 368 128 352
WIRE 128 368 32 368
WIRE 240 368 128 368
WIRE 240 416 240 368
WIRE 608 432 608 208
FLAG 512 -144 0
FLAG 240 416 0
FLAG 608 512 0
FLAG 800 192 Vout
FLAG 240 112 Vosc
SYMBOL ind 224 272 R0
SYMATTR InstName L1
SYMATTR Value 5m9
SYMBOL npn -32 48 R0
SYMATTR InstName Q1
SYMBOL pnp 176 -112 R0
SYMATTR InstName Q2
SYMBOL res 224 -256 R0
SYMATTR InstName R1
SYMATTR Value 560
SYMBOL res 16 -256 R0
SYMATTR InstName R2
SYMATTR Value 1k2
SYMBOL res -144 -256 R0
SYMATTR InstName R3
SYMATTR Value 27k
SYMBOL res 0 208 R90
WINDOW 0 0 56 VBottom 2
WINDOW 3 32 56 VTop 2
SYMATTR InstName R4
SYMATTR Value 12k
SYMBOL res 48 384 R180
WINDOW 0 36 76 Left 2
WINDOW 3 36 40 Left 2
SYMATTR InstName R5
SYMATTR Value 2k
SYMBOL cap 112 288 R0
SYMATTR InstName C1
SYMATTR Value 43n
SYMBOL voltage 512 -256 R0
WINDOW 123 0 0 Left 0
WINDOW 39 0 0 Left 0
SYMATTR InstName V1
SYMATTR Value 9
SYMBOL OpAmps\\opamp 656 128 R0
SYMATTR InstName U1
SYMBOL voltage 608 416 R0
WINDOW 123 0 0 Left 0
WINDOW 39 0 0 Left 0
SYMATTR InstName V2
SYMATTR Value 1.4
SYMBOL res 704 96 R90
WINDOW 0 0 56 VBottom 2
WINDOW 3 32 56 VTop 2
SYMATTR InstName R9
SYMATTR Value 19k
SYMBOL res 496 160 R90
WINDOW 0 0 56 VBottom 2
WINDOW 3 32 56 VTop 2
SYMATTR InstName R10
SYMATTR Value 100k
TEXT -144 440 Left 2 !.tran 0 18m 16m 1u
TEXT -144 464 Left 2 !.lib opamp.sub
TEXT -144 496 Left 2 !.meas TRAN maxOutputVoltage MAX V(Vout)
TEXT -144 520 Left 2 !.meas TRAN minOutputVoltage MIN V(Vout)
